/*--------------------------------*- C++ -*----------------------------------*\
  =========                 |
  \\      /  F ield         | OpenFOAM: The Open Source CFD Toolbox
   \\    /   O peration     | Website:  https://openfoam.org
    \\  /    A nd           | Version:  6
     \\/     M anipulation  |
\*---------------------------------------------------------------------------*/
FoamFile
{
    version     2.0;
    format      ascii;
    class       volVectorField;
    location    "0";
    object      U;
}
// * * * * * * * * * * * * * * * * * * * * * * * * * * * * * * * * * * * * * //

dimensions      [0 1 -1 0 0 0 0];

internalField   uniform (0.1335 0 0);

boundaryField
{

    inlet
    {
        type            turbulentATSMInlet;
        periodicInZ     true;
        vortonType      "typeL";
        density         1;
        value           $internalField;
    }

    outlet
    {
        type            zeroGradient;
    }

    bottomWall
    {
        type            noSlip;
    }

    topWall
    {
        type            noSlip;
    }

    #includeEtc "caseDicts/setConstraintTypes"
}


// ************************************************************************* //
